omf/solvers/opendss/EPRI-M1.clean.dss


!!!master.dss
clear
new object=circuit.m1


! redirect vsource.dss
! makebuslist
! redirect busvoltagebases.dss ! set voltage bases
! buscoords buscoords.dss
! giscoords giscoords.dss


!!!loadshape.dss
new object=loadshape.default npts=24 interval=1 mult=[0.677,0.6256,0.6087,0.5833,0.58028,0.6025,0.657,0.7477,0.832,0.88,0.94,0.989,0.985,0.98,0.9898,0.999,1,0.958,0.936,0.913,0.876,0.876,0.828,0.756]
new object=loadshape.23 npts=0 npts=0 mult=[]
new object=loadshape.26 npts=0 npts=0 mult=[]
new object=loadshape.32 npts=0 npts=0 mult=[]
new object=loadshape.36 npts=0 npts=0 mult=[]
new object=loadshape.aggregated npts=0 npts=0 mult=[]


!!!vsource.dss
edit object=vsource.source bus1=sourcebus pu=1.0 basekv=67 r1=0.0518 x1=0.1555 r0=0.0518 x0=0.155


!!!transformer.dss
new object=transformer.m1_xfmr phases=3 windings=2 buses=[sourcebus,temp] conns=[delta,wye] kvs=[67,12.47] kvas=[16800,16800] xhl=8 sub=y subname=m1 mintap=0.95 maxtap=1.05 buses=[sourcebus,temp] conns=[delta,wye] kvs=[67,12.47] kvas=[16800,16800] taps=[1,1.01875] wdg=1 %r=0.2 rdcohms=0.454244 wdg=2 %r=0.2 rdcohms=0.00524507
new object=transformer.xfmr_ae191606_a phases=1 buses=[0x008ddeb0.1,0x008ddeb0_s.1] kvs=[7.2,0.24] kvas=[25,25] xhl=1.57 %loadloss=1.31292 %noloadloss=0.2492
new object=transformer.xfmr_ae300103_a phases=1 buses=[0x008dcbc8.1,0x008dcbc8_s.1] kvs=[7.2,0.24] kvas=[75,75] xhl=1.84 %loadloss=0.836 %noloadloss=0.1466667
new object=transformer.xfmr_ae300104_a phases=1 buses=[0x008dd0f0.1,0x008dd0f0_s.1] kvs=[7.2,0.24] kvas=[75,75] xhl=1.73 %loadloss=0.7777646 %noloadloss=0.1609687
new object=transformer.xfmr_ae300105_c phases=1 buses=[0x008e7f28.3,0x008e7f28_s.3] kvs=[7.2,0.24] kvas=[75,75] xhl=1.54 %loadloss=0.7073333 %noloadloss=0.1852
new object=transformer.xfmr_ae300106_c phases=1 buses=[0x0089eba0.3,0x0089eba0_s.3] kvs=[7.2,0.24] kvas=[75,75] xhl=1.83 %loadloss=0.8017333 %noloadloss=0.1538667
new object=transformer.xfmr_ae300107_c phases=1 buses=[0x0089f280.3,0x0089f280_s.3] kvs=[7.2,0.24] kvas=[75,75] xhl=1.84 %loadloss=0.8248 %noloadloss=0.1513333
new object=transformer.xfmr_ae300108_b phases=1 buses=[0x008c7a18.2,0x008c7a18_s.2] kvs=[7.2,0.24] kvas=[75,75] xhl=1.87 %loadloss=0.8390667 %noloadloss=0.1476
new object=transformer.xfmr_ae300109_b phases=1 buses=[0x008ca358.2,0x008ca358_s.2] kvs=[7.2,0.24] kvas=[50,50] xhl=1.84 %loadloss=0.954 %noloadloss=0.186
new object=transformer.xfmr_ae300110_a phases=1 buses=[0x008ca6c8.1,0x008ca6c8_s.1] kvs=[7.2,0.24] kvas=[75,75] xhl=1.84 %loadloss=0.806 %noloadloss=0.15
new object=transformer.xfmr_ae300111_a phases=1 buses=[0x008c9070.1,0x008c9070_s.1] kvs=[7.2,0.24] kvas=[75,75] xhl=1.54 %loadloss=0.7 %noloadloss=0.1893333
new object=transformer.xfmr_ae300114_c phases=1 buses=[0x008dee30.3,0x008dee30_s.3] kvs=[7.2,0.24] kvas=[25,25] xhl=2.04 %loadloss=1.304 %noloadloss=0.228
new object=transformer.xfmr_ae300115_c phases=1 buses=[0x008e8450.3,0x008e8450_s.3] kvs=[7.2,0.24] kvas=[50,50] xhl=1.5 %loadloss=0.8906804 %noloadloss=0.1857911
new object=transformer.xfmr_ae300116_c phases=1 buses=[0x008c4d68.3,0x008c4d68_s.3] kvs=[7.2,0.24] kvas=[25,25] xhl=2.03 %loadloss=1.256 %noloadloss=0.248
new object=transformer.xfmr_ae300117_c phases=1 buses=[0x008df6c8.3,0x008df6c8_s.3] kvs=[7.2,0.24] kvas=[75,75] xhl=1.8 %loadloss=0.6133333 %noloadloss=0.1826667
new object=transformer.xfmr_ae300118_c phases=1 buses=[0x008e8978.3,0x008e8978_s.3] kvs=[7.2,0.24] kvas=[75,75] xhl=1.82 %loadloss=0.82 %noloadloss=0.1493333
new object=transformer.xfmr_ae300119_c phases=1 buses=[0x008e87c0.3,0x008e87c0_s.3] kvs=[7.2,0.24] kvas=[75,75] xhl=1.82 %loadloss=0.8453333 %noloadloss=0.1493333
new object=transformer.xfmr_ae300120_c phases=1 buses=[0x008da5f0.3,0x008da5f0_s.3] kvs=[7.2,0.24] kvas=[75,75] xhl=1.6 %loadloss=0.7777646 %noloadloss=0.1609687
new object=transformer.xfmr_ae300121_c phases=1 buses=[0x008ea188.3,0x008ea188_s.3] kvs=[7.2,0.24] kvas=[50,50] xhl=1.6 %loadloss=0.8906804 %noloadloss=0.1857911
new object=transformer.xfmr_ae300122_a phases=1 buses=[0x008e9e18.1,0x008e9e18_s.1] kvs=[7.2,0.24] kvas=[75,75] xhl=1.85 %loadloss=0.8084 %noloadloss=0.1509333
new object=transformer.xfmr_ae300123_a phases=1 buses=[0x008dbc48.1,0x008dbc48_s.1] kvs=[7.2,0.24] kvas=[50,50] xhl=1.9 %loadloss=0.962 %noloadloss=0.184
new object=transformer.xfmr_ae300124_b phases=1 buses=[0x008dfbf0.2,0x008dfbf0_s.2] kvs=[7.2,0.24] kvas=[75,75] xhl=1.7 %loadloss=0.7777646 %noloadloss=0.1609687
new object=transformer.xfmr_ae300125_b phases=1 buses=[0x008d0398.2,0x008d0398_s.2] kvs=[7.2,0.24] kvas=[50,50] xhl=1.88 %loadloss=0.94 %noloadloss=0.1888
new object=transformer.xfmr_ae300134_a phases=1 buses=[0x008c5290.1,0x008c5290_s.1] kvs=[7.2,0.24] kvas=[50,50] xhl=1.96 %loadloss=0.964 %noloadloss=0.18
new object=transformer.xfmr_ae300135_a phases=1 buses=[0x008c4bb0.1,0x008c4bb0_s.1] kvs=[7.2,0.24] kvas=[75,75] xhl=1.6 %loadloss=0.7058667 %noloadloss=0.1824
new object=transformer.xfmr_ae300136_a phases=1 buses=[0x008dbfb8.1,0x008dbfb8_s.1] kvs=[7.2,0.24] kvas=[50,50] xhl=1.83 %loadloss=0.944 %noloadloss=0.1842
new object=transformer.xfmr_ae300142_b phases=1 buses=[0x0089dde0.2,0x0089dde0_s.2] kvs=[7.2,0.24] kvas=[75,75] xhl=3.6 %loadloss=0.7777646 %noloadloss=0.1609687
new object=transformer.xfmr_ae300143_b phases=1 buses=[0x0089d700.2,0x0089d700_s.2] kvs=[7.2,0.24] kvas=[25,25] xhl=1.6 %loadloss=1.187487 %noloadloss=0.2502
new object=transformer.xfmr_ae300144_b phases=1 buses=[0x0089e4c0.2,0x0089e4c0_s.2] kvs=[7.2,0.24] kvas=[25,25] xhl=1.6 %loadloss=0.936 %noloadloss=0.276
new object=transformer.xfmr_ae300145_b phases=1 buses=[0x008c5970.2,0x008c5970_s.2] kvs=[7.2,0.24] kvas=[75,75] xhl=1.9 %loadloss=0.8269333 %noloadloss=0.1525333
new object=transformer.xfmr_ae300146_b phases=1 buses=[0x0089d020.2,0x0089d020_s.2] kvs=[7.2,0.24] kvas=[50,50] xhl=1.85 %loadloss=0.9338 %noloadloss=0.1884
new object=transformer.xfmr_ae300147_b phases=1 buses=[0x008c2b70.2,0x008c2b70_s.2] kvs=[7.2,0.24] kvas=[75,75] xhl=1.89 %loadloss=0.8372 %noloadloss=0.1465333
new object=transformer.xfmr_ae300148_b phases=1 buses=[0x008c2490.2,0x008c2490_s.2] kvs=[7.2,0.24] kvas=[75,75] xhl=1.91 %loadloss=0.7501333 %noloadloss=0.1952
new object=transformer.xfmr_ae300149_b phases=1 buses=[0x0089bf70.2,0x0089bf70_s.2] kvs=[7.2,0.24] kvas=[75,75] xhl=1.82 %loadloss=0.8266667 %noloadloss=0.156
new object=transformer.xfmr_ae300150_b phases=1 buses=[0x008c2648.2,0x008c2648_s.2] kvs=[7.2,0.24] kvas=[50,50] xhl=1.87 %loadloss=0.95 %noloadloss=0.18
new object=transformer.xfmr_ae300151_b phases=1 buses=[0x008f3960.2,0x008f3960_s.2] kvs=[7.2,0.24] kvas=[50,50] xhl=1.6 %loadloss=0.8906804 %noloadloss=0.1857911
new object=transformer.xfmr_ae300152_b phases=1 buses=[0x008c7338.2,0x008c7338_s.2] kvs=[7.2,0.24] kvas=[25,25] xhl=1.5 %loadloss=0.928 %noloadloss=0.248
new object=transformer.xfmr_ae300153_c phases=1 buses=[0x0089c260.3,0x0089c260_s.3] kvs=[7.2,0.24] kvas=[75,75] xhl=1.49 %loadloss=0.6453333 %noloadloss=0.1866667
new object=transformer.xfmr_ae300154_c phases=1 buses=[0x008e49e0.3,0x008e49e0_s.3] kvs=[7.2,0.24] kvas=[75,75] xhl=1.7 %loadloss=0.7777646 %noloadloss=0.1609687
new object=transformer.xfmr_ae300155_c phases=1 buses=[0x0089c940.3,0x0089c940_s.3] kvs=[7.2,0.24] kvas=[50,50] xhl=1.87 %loadloss=0.952 %noloadloss=0.184
new object=transformer.xfmr_ae300199_a phases=1 buses=[0x008b8108.1,0x008b8108_s.1] kvs=[7.2,0.24] kvas=[50,50] xhl=2.9 %loadloss=1.187487 %noloadloss=0.2502
new object=transformer.xfmr_ae300199_c phases=1 buses=[0x008b8108.3,0x008b8108_s.3] kvs=[7.2,0.24] kvas=[50,50] xhl=2.9 %loadloss=1.187487 %noloadloss=0.2502
new object=transformer.xfmr_ae300202_a phases=1 buses=[0x008e44b8.1,0x008e44b8_s.1] kvs=[7.2,0.24] kvas=[50,50] xhl=1.92 %loadloss=0.9506 %noloadloss=0.1796
new object=transformer.xfmr_ae300203_a phases=1 buses=[0x008db8d8.1,0x008db8d8_s.1] kvs=[7.2,0.24] kvas=[75,75] xhl=1.84 %loadloss=0.832 %noloadloss=0.144
new object=transformer.xfmr_ae300204_a phases=1 buses=[0x008d9678.1,0x008d9678_s.1] kvs=[7.2,0.24] kvas=[50,50] xhl=1.88 %loadloss=0.9432 %noloadloss=0.1872
new object=transformer.xfmr_ae300206_a phases=1 buses=[0x008dd7d0.1,0x008dd7d0_s.1] kvs=[7.2,0.24] kvas=[50,50] xhl=1.5 %loadloss=0.8906804 %noloadloss=0.1857911
new object=transformer.xfmr_ae300207_a phases=1 buses=[0x008d2618.1,0x008d2618_s.1] kvs=[7.2,0.24] kvas=[75,75] xhl=1.73 %loadloss=0.7413333 %noloadloss=0.1866667
new object=transformer.xfmr_ae300208_a phases=1 buses=[0x008e74d8.1,0x008e74d8_s.1] kvs=[7.2,0.24] kvas=[75,75] xhl=1.66 %loadloss=0.7426667 %noloadloss=0.188
new object=transformer.xfmr_ae300209_a phases=1 buses=[0x008e5278.1,0x008e5278_s.1] kvs=[7.2,0.24] kvas=[50,50] xhl=1.5 %loadloss=0.8906804 %noloadloss=0.1857911
new object=transformer.xfmr_ae300216_b phases=1 buses=[0x008eda38.2,0x008eda38_s.2] kvs=[7.2,0.24] kvas=[75,75] xhl=1.8 %loadloss=0.8057333 %noloadloss=0.1533333
new object=transformer.xfmr_ae300217_b phases=1 buses=[0x008d7dc8.2,0x008d7dc8_s.2] kvs=[7.2,0.24] kvas=[75,75] xhl=1.84 %loadloss=0.8316 %noloadloss=0.1509333
new object=transformer.xfmr_ae300225_c phases=1 buses=[0x008df1a0.3,0x008df1a0_s.3] kvs=[7.2,0.24] kvas=[50,50] xhl=1.83 %loadloss=0.946 %noloadloss=0.186
new object=transformer.xfmr_ae300226_a phases=1 buses=[0x008e8ce8.1,0x008e8ce8_s.1] kvs=[7.2,0.24] kvas=[75,75] xhl=1.8 %loadloss=0.7777646 %noloadloss=0.1609687
new object=transformer.xfmr_ae300227_a phases=1 buses=[0x008e6560.1,0x008e6560_s.1] kvs=[7.2,0.24] kvas=[50,50] xhl=1.97 %loadloss=0.9874 %noloadloss=0.1826
new object=transformer.xfmr_ae300229_a phases=1 buses=[0x008e7168.1,0x008e7168_s.1] kvs=[7.2,0.24] kvas=[75,75] xhl=1.98 %loadloss=0.7777646 %noloadloss=0.1609687
new object=transformer.xfmr_ae300234_a phases=1 buses=[0x008e93c8.1,0x008e93c8_s.1] kvs=[7.2,0.24] kvas=[75,75] xhl=1.57 %loadloss=0.8253333 %noloadloss=0.1626667
new object=transformer.xfmr_ae300235_b phases=1 buses=[0x008e7320.2,0x008e7320_s.2] kvs=[7.2,0.24] kvas=[50,50] xhl=1.88 %loadloss=0.9614 %noloadloss=0.1774
new object=transformer.xfmr_ae300236_b phases=1 buses=[0x008e7848.2,0x008e7848_s.2] kvs=[7.2,0.24] kvas=[50,50] xhl=1.77 %loadloss=1.1247 %noloadloss=0.19808
new object=transformer.xfmr_ae300237_b phases=1 buses=[0x008e4300.2,0x008e4300_s.2] kvs=[7.2,0.24] kvas=[75,75] xhl=1.93 %loadloss=0.7777646 %noloadloss=0.1609687
new object=transformer.xfmr_ae300238_b phases=1 buses=[0x008e2750.2,0x008e2750_s.2] kvs=[7.2,0.24] kvas=[50,50] xhl=1.87 %loadloss=0.9544 %noloadloss=0.1862
new object=transformer.xfmr_ae300239_b phases=1 buses=[0x008e2ac0.2,0x008e2ac0_s.2] kvs=[7.2,0.24] kvas=[50,50] xhl=1.71 %loadloss=0.8906804 %noloadloss=0.1857911
new object=transformer.xfmr_ae300240_c phases=1 buses=[0x008eb998.3,0x008eb998_s.3] kvs=[7.2,0.24] kvas=[50,50] xhl=1.86 %loadloss=0.939 %noloadloss=0.1854
new object=transformer.xfmr_ae300241_c phases=1 buses=[0x008eb2b8.3,0x008eb2b8_s.3] kvs=[7.2,0.24] kvas=[50,50] xhl=1.6 %loadloss=0.8906804 %noloadloss=0.1857911
new object=transformer.xfmr_ae300242_c phases=1 buses=[0x008ed358.3,0x008ed358_s.3] kvs=[7.2,0.24] kvas=[50,50] xhl=1.54 %loadloss=0.7088 %noloadloss=0.1836
new object=transformer.xfmr_ae300243_c phases=1 buses=[0x008e2fe8.3,0x008e2fe8_s.3] kvs=[7.2,0.24] kvas=[75,75] xhl=1.6 %loadloss=0.7777646 %noloadloss=0.1609687
new object=transformer.xfmr_ae300244_c phases=1 buses=[0x008e3510.3,0x008e3510_s.3] kvs=[7.2,0.24] kvas=[50,50] xhl=1.55 %loadloss=0.7142 %noloadloss=0.1926
new object=transformer.xfmr_ae300245_c phases=1 buses=[0x008e68d0.3,0x008e68d0_s.3] kvs=[7.2,0.24] kvas=[50,50] xhl=1.57 %loadloss=0.7608 %noloadloss=0.191
new object=transformer.xfmr_ae300253_b phases=1 buses=[0x008e9c60.2,0x008e9c60_s.2] kvs=[7.2,0.24] kvas=[50,50] xhl=1.6 %loadloss=0.8906804 %noloadloss=0.1857911
new object=transformer.xfmr_ae300253_c phases=1 buses=[0x008e9c60.3,0x008e9c60_s.3] kvs=[7.2,0.24] kvas=[50,50] xhl=1.6 %loadloss=0.8906804 %noloadloss=0.1857911
new object=transformer.xfmr_ae300255_b phases=1 buses=[0x008df510.2,0x008df510_s.2] kvs=[7.2,0.24] kvas=[38,38] xhl=1.9 %loadloss=0.8906804 %noloadloss=0.1857911
new object=transformer.xfmr_ae300255_c phases=1 buses=[0x008df510.3,0x008df510_s.3] kvs=[7.2,0.24] kvas=[38,38] xhl=1.9 %loadloss=0.8906804 %noloadloss=0.1857911
new object=transformer.xfmr_ae300257_a phases=1 buses=[0x008e7d70.1,0x008e7d70_s.1] kvs=[7.2,0.12] kvas=[25,25] xhl=2.1 %loadloss=1.187487 %noloadloss=0.2502
new object=transformer.xfmr_ae300257_b phases=1 buses=[0x008e7d70.2,0x008e7d70_s.2] kvs=[7.2,0.12] kvas=[25,25] xhl=2.1 %loadloss=1.187487 %noloadloss=0.2502
new object=transformer.xfmr_ae300257_c phases=1 buses=[0x008e7d70.3,0x008e7d70_s.3] kvs=[7.2,0.12] kvas=[25,25] xhl=2.1 %loadloss=1.187487 %noloadloss=0.2502
new object=transformer.xfmr_ae300701_a phases=1 buses=[0x008ce818.1,0x008ce818_s.1] kvs=[7.2,0.24] kvas=[75,75] xhl=1.77 %loadloss=0.748 %noloadloss=0.172
new object=transformer.xfmr_ae300702_b phases=1 buses=[0x008d3ac0.2,0x008d3ac0_s.2] kvs=[7.2,0.24] kvas=[75,75] xhl=1.59 %loadloss=0.7085333 %noloadloss=0.1870667
new object=transformer.xfmr_ae300703_b phases=1 buses=[0x008cd8a0.2,0x008cd8a0_s.2] kvs=[7.2,0.24] kvas=[75,75] xhl=3.1 %loadloss=0.7777646 %noloadloss=0.1609687
new object=transformer.xfmr_ae300704_b phases=1 buses=[0x008de598.2,0x008de598_s.2] kvs=[7.2,0.24] kvas=[75,75] xhl=1.87 %loadloss=0.8278667 %noloadloss=0.1521333
new object=transformer.xfmr_ae300705_b phases=1 buses=[0x008d3598.2,0x008d3598_s.2] kvs=[7.2,0.24] kvas=[75,75] xhl=1.65 %loadloss=0.7706667 %noloadloss=0.1813333
new object=transformer.xfmr_ae300706_b phases=1 buses=[0x008d33e0.2,0x008d33e0_s.2] kvs=[7.2,0.24] kvas=[75,75] xhl=1.83 %loadloss=0.8346667 %noloadloss=0.1506667
new object=transformer.xfmr_ae300707_b phases=1 buses=[0x008d4510.2,0x008d4510_s.2] kvs=[7.2,0.24] kvas=[50,50] xhl=1.9 %loadloss=0.962 %noloadloss=0.18
new object=transformer.xfmr_ae300710_c phases=1 buses=[0x008d4880.3,0x008d4880_s.3] kvs=[7.2,0.24] kvas=[75,75] xhl=1.6 %loadloss=0.7118667 %noloadloss=0.1886667
new object=transformer.xfmr_ae300711_c phases=1 buses=[0x008d4f60.3,0x008d4f60_s.3] kvs=[7.2,0.24] kvas=[75,75] xhl=2.2 %loadloss=0.7777646 %noloadloss=0.1609687
new object=transformer.xfmr_ae300712_c phases=1 buses=[0x008d5d20.3,0x008d5d20_s.3] kvs=[7.2,0.24] kvas=[75,75] xhl=1.6 %loadloss=0.5853333 %noloadloss=0.2026667
new object=transformer.xfmr_ae300713_c phases=1 buses=[0x008d6400.3,0x008d6400_s.3] kvs=[7.2,0.24] kvas=[75,75] xhl=1.7 %loadloss=0.5813333 %noloadloss=0.1986667
new object=transformer.xfmr_ae300714_c phases=1 buses=[0x008d5488.3,0x008d5488_s.3] kvs=[7.2,0.24] kvas=[50,50] xhl=1.67 %loadloss=0.606 %noloadloss=0.206
new object=transformer.xfmr_ae300715_c phases=1 buses=[0x008d4bf0.3,0x008d4bf0_s.3] kvs=[7.2,0.24] kvas=[75,75] xhl=1.54 %loadloss=0.5253333 %noloadloss=0.2093333
new object=transformer.xfmr_ae300808_b phases=1 buses=[0x008d0de8.2,0x008d0de8_s.2] kvs=[7.2,0.24] kvas=[50,50] xhl=1.3 %loadloss=0.8906804 %noloadloss=0.1857911
new object=transformer.xfmr_ae300809_b phases=1 buses=[0x008cce50.2,0x008cce50_s.2] kvs=[7.2,0.24] kvas=[50,50] xhl=1.86 %loadloss=0.9472 %noloadloss=0.1828
new object=transformer.xfmr_ae300810_b phases=1 buses=[0x008d3e30.2,0x008d3e30_s.2] kvs=[7.2,0.24] kvas=[75,75] xhl=1.84 %loadloss=0.8213333 %noloadloss=0.1466667
new object=transformer.xfmr_ae300811_b phases=1 buses=[0x008d14e8.2,0x008d14e8_s.2] kvs=[7.2,0.24] kvas=[75,75] xhl=1.6 %loadloss=0.7777646 %noloadloss=0.1609687
new object=transformer.xfmr_ae300812_b phases=1 buses=[0x008d1f38.2,0x008d1f38_s.2] kvs=[7.2,0.24] kvas=[75,75] xhl=1.3 %loadloss=0.7777646 %noloadloss=0.1609687
new object=transformer.xfmr_ae300813_b phases=1 buses=[0x008dd618.2,0x008dd618_s.2] kvs=[7.2,0.24] kvas=[75,75] xhl=1.8 %loadloss=0.7777646 %noloadloss=0.1609687
new object=transformer.xfmr_ae300814_a phases=1 buses=[0x008dff60.1,0x008dff60_s.1] kvs=[7.2,0.24] kvas=[50,50] xhl=1.3 %loadloss=0.8906804 %noloadloss=0.1857911
new object=transformer.xfmr_ae300815_b phases=1 buses=[0x008ee520.2,0x008ee520_s.2] kvs=[7.2,0.24] kvas=[38,38] xhl=1.5 %loadloss=0.8906804 %noloadloss=0.1857911
new object=transformer.xfmr_ae300817_b phases=1 buses=[0x008cb488.2,0x008cb488_s.2] kvs=[7.2,0.24] kvas=[75,75] xhl=1.82 %loadloss=0.8186667 %noloadloss=0.1544
new object=transformer.xfmr_ae300818_b phases=1 buses=[0x008c8990.2,0x008c8990_s.2] kvs=[7.2,0.24] kvas=[75,75] xhl=1.88 %loadloss=0.8361333 %noloadloss=0.1565333
new object=transformer.xfmr_ae300819_a phases=1 buses=[0x008cada8.1,0x008cada8_s.1] kvs=[7.2,0.24] kvas=[75,75] xhl=1.86 %loadloss=0.8268 %noloadloss=0.1550667
new object=transformer.xfmr_ae300820_a phases=1 buses=[0x008dc858.1,0x008dc858_s.1] kvs=[7.2,0.24] kvas=[75,75] xhl=3.21 %loadloss=0.942 %noloadloss=0.04306667
new object=transformer.xfmr_ae300821_a phases=1 buses=[0x008d0708.1,0x008d0708_s.1] kvs=[7.2,0.24] kvas=[75,75] xhl=2.26 %loadloss=0.8981333 %noloadloss=0.1548
new object=transformer.xfmr_ae300822_a phases=1 buses=[0x008e8b30.1,0x008e8b30_s.1] kvs=[7.2,0.24] kvas=[75,75] xhl=1.57 %loadloss=0.7073333 %noloadloss=0.1857333
new object=transformer.xfmr_ae300823_c phases=1 buses=[0x008c7860.3,0x008c7860_s.3] kvs=[7.2,0.24] kvas=[75,75] xhl=1.49 %loadloss=0.6106667 %noloadloss=0.2013333
new object=transformer.xfmr_ae300825_b phases=1 buses=[0x008cc090.2,0x008cc090_s.2] kvs=[7.2,0.24] kvas=[50,50] xhl=1.87 %loadloss=0.9586 %noloadloss=0.1782
new object=transformer.xfmr_ae300826_b phases=1 buses=[0x008cd530.2,0x008cd530_s.2] kvs=[7.2,0.24] kvas=[75,75] xhl=1.85 %loadloss=0.812 %noloadloss=0.1453333
new object=transformer.xfmr_ae300827_b phases=1 buses=[0x008cdc10.2,0x008cdc10_s.2] kvs=[7.2,0.24] kvas=[75,75] xhl=1.84 %loadloss=0.816 %noloadloss=0.152
new object=transformer.xfmr_ae300828_b phases=1 buses=[0x008ce138.2,0x008ce138_s.2] kvs=[7.2,0.24] kvas=[50,50] xhl=1.8 %loadloss=0.8906804 %noloadloss=0.1857911
new object=transformer.xfmr_ae300829_b phases=1 buses=[0x008da7a8.2,0x008da7a8_s.2] kvs=[7.2,0.24] kvas=[50,50] xhl=1.83 %loadloss=0.9566 %noloadloss=0.1958
new object=transformer.xfmr_ae300830_b phases=1 buses=[0x008d01e0.2,0x008d01e0_s.2] kvs=[7.2,0.24] kvas=[50,50] xhl=1.85 %loadloss=0.9404 %noloadloss=0.1848
new object=transformer.xfmr_ae300831_c phases=1 buses=[0x008cb9b0.3,0x008cb9b0_s.3] kvs=[7.2,0.24] kvas=[50,50] xhl=1.68 %loadloss=0.654 %noloadloss=0.216
new object=transformer.xfmr_ae300832_c phases=1 buses=[0x008cc770.3,0x008cc770_s.3] kvs=[7.2,0.24] kvas=[75,75] xhl=1.82 %loadloss=0.8226667 %noloadloss=0.148
new object=transformer.xfmr_ae300833_c phases=1 buses=[0x008cf0b0.3,0x008cf0b0_s.3] kvs=[7.2,0.24] kvas=[75,75] xhl=1.8 %loadloss=0.7777646 %noloadloss=0.1609687
new object=transformer.xfmr_ae300834_c phases=1 buses=[0x008c50d8.3,0x008c50d8_s.3] kvs=[7.2,0.24] kvas=[50,50] xhl=1.92 %loadloss=0.966 %noloadloss=0.186
new object=transformer.xfmr_ae300835_c phases=1 buses=[0x008cf790.3,0x008cf790_s.3] kvs=[7.2,0.24] kvas=[50,50] xhl=1.62 %loadloss=0.6696 %noloadloss=0.2108
new object=transformer.xfmr_ae300836_c phases=1 buses=[0x008cfe70.3,0x008cfe70_s.3] kvs=[7.2,0.24] kvas=[50,50] xhl=1.8 %loadloss=0.8906804 %noloadloss=0.1857911
new object=transformer.xfmr_ae300901_a phases=1 buses=[0x008c6fc8.1,0x008c6fc8_s.1] kvs=[7.2,0.24] kvas=[75,75] xhl=1.6 %loadloss=0.7777646 %noloadloss=0.1609687
new object=transformer.xfmr_ae300902_a phases=1 buses=[0x008c8eb8.1,0x008c8eb8_s.1] kvs=[7.2,0.24] kvas=[75,75] xhl=1.85 %loadloss=0.8186667 %noloadloss=0.152
new object=transformer.xfmr_ae300903_b phases=1 buses=[0x008f2830.2,0x008f2830_s.2] kvs=[7.2,0.24] kvas=[100,100] xhl=1.82 %loadloss=0.679 %noloadloss=0.171
new object=transformer.xfmr_ae300904_b phases=1 buses=[0x008d1330.2,0x008d1330_s.2] kvs=[7.2,0.24] kvas=[75,75] xhl=1.7 %loadloss=0.7777646 %noloadloss=0.1609687
new object=transformer.xfmr_ae300905_b phases=1 buses=[0x008d8660.2,0x008d8660_s.2] kvs=[7.2,0.24] kvas=[75,75] xhl=1.69 %loadloss=0.7453333 %noloadloss=0.1746667
new object=transformer.xfmr_ae300906_b phases=1 buses=[0x008d4358.2,0x008d4358_s.2] kvs=[7.2,0.24] kvas=[75,75] xhl=1.57 %loadloss=0.648 %noloadloss=0.1973333
new object=transformer.xfmr_ae300907_b phases=1 buses=[0x008d1bc8.2,0x008d1bc8_s.2] kvs=[7.2,0.24] kvas=[75,75] xhl=1.72 %loadloss=0.7613333 %noloadloss=0.1826667
new object=transformer.xfmr_ae300908_b phases=1 buses=[0x008d6ae0.2,0x008d6ae0_s.2] kvs=[7.2,0.24] kvas=[75,75] xhl=1.65 %loadloss=0.752 %noloadloss=0.1773333
new object=transformer.xfmr_ae300911_c phases=1 buses=[0x008d41a0.3,0x008d41a0_s.3] kvs=[7.2,0.24] kvas=[75,75] xhl=1.68 %loadloss=0.7613333 %noloadloss=0.1706667
new object=transformer.xfmr_ae300912_c phases=1 buses=[0x008eaa20.3,0x008eaa20_s.3] kvs=[7.2,0.24] kvas=[75,75] xhl=1.87 %loadloss=0.8517333 %noloadloss=0.1497333
new object=transformer.xfmr_ae300913_c phases=1 buses=[0x008d3228.3,0x008d3228_s.3] kvs=[7.2,0.24] kvas=[50,50] xhl=1.86 %loadloss=0.9628 %noloadloss=0.1786
new object=transformer.xfmr_ae300914_a phases=1 buses=[0x008ce2f0.1,0x008ce2f0_s.1] kvs=[7.2,0.24] kvas=[75,75] xhl=1.64 %loadloss=0.7706667 %noloadloss=0.1733333
new object=transformer.xfmr_ae300915_a phases=1 buses=[0x008c8b48.1,0x008c8b48_s.1] kvs=[7.2,0.24] kvas=[75,75] xhl=1.85 %loadloss=0.8093333 %noloadloss=0.1488
new object=transformer.xfmr_ae300916_a phases=1 buses=[0x008cf5d8.1,0x008cf5d8_s.1] kvs=[7.2,0.24] kvas=[75,75] xhl=1.66 %loadloss=0.7533333 %noloadloss=0.172
new object=transformer.xfmr_ae300917_a phases=1 buses=[0x008dc4e8.1,0x008dc4e8_s.1] kvs=[7.2,0.24] kvas=[75,75] xhl=1.67 %loadloss=0.752 %noloadloss=0.176
new object=transformer.xfmr_ae300918_a phases=1 buses=[0x008d2460.1,0x008d2460_s.1] kvs=[7.2,0.24] kvas=[75,75] xhl=3.2 %loadloss=0.9534667 %noloadloss=0.04506667
new object=transformer.xfmr_ae300919_a phases=1 buses=[0x008d5ed8.1,0x008d5ed8_s.1] kvs=[7.2,0.24] kvas=[50,50] xhl=1.77 %loadloss=1.12942 %noloadloss=0.18444
new object=transformer.xfmr_ae300920_a phases=1 buses=[0x008cd6e8.1,0x008cd6e8_s.1] kvs=[7.2,0.24] kvas=[75,75] xhl=3.21 %loadloss=0.9374667 %noloadloss=0.042
new object=transformer.xfmr_ae300921_b phases=1 buses=[0x008b8d10.2,0x008b8d10_s.2] kvs=[7.2,0.24] kvas=[50,50] xhl=1.78 %loadloss=1.10798 %noloadloss=0.19434
new object=transformer.xfmr_ae300922_b phases=1 buses=[0x008eb470.2,0x008eb470_s.2] kvs=[7.2,0.24] kvas=[50,50] xhl=1.78 %loadloss=0.9256 %noloadloss=0.1784
new object=transformer.xfmr_ae300923_b phases=1 buses=[0x008d5118.2,0x008d5118_s.2] kvs=[7.2,0.24] kvas=[50,50] xhl=1.69 %loadloss=0.9829 %noloadloss=0.20862
new object=transformer.xfmr_ae301003_c phases=1 buses=[0x008d82f0.3,0x008d82f0_s.3] kvs=[7.2,0.24] kvas=[75,75] xhl=1.7 %loadloss=0.7777646 %noloadloss=0.1609687
new object=transformer.xfmr_ae301004_c phases=1 buses=[0x00899528.3,0x00899528_s.3] kvs=[7.2,0.24] kvas=[75,75] xhl=1.9 %loadloss=0.8353333 %noloadloss=0.1501333
new object=transformer.xfmr_ae301005_c phases=1 buses=[0x008d6c98.3,0x008d6c98_s.3] kvs=[7.2,0.24] kvas=[50,50] xhl=1.61 %loadloss=0.678 %noloadloss=0.222
new object=transformer.xfmr_ae301006_c phases=1 buses=[0x008d7008.3,0x008d7008_s.3] kvs=[7.2,0.24] kvas=[50,50] xhl=1.6 %loadloss=0.8906804 %noloadloss=0.1857911
new object=transformer.xfmr_ae301007_c phases=1 buses=[0x008c93e0.3,0x008c93e0_s.3] kvs=[7.2,0.24] kvas=[50,50] xhl=1.62 %loadloss=0.72 %noloadloss=0.198
new object=transformer.xfmr_ae301008_c phases=1 buses=[0x008d8d40.3,0x008d8d40_s.3] kvs=[7.2,0.24] kvas=[75,75] xhl=1.84 %loadloss=0.8476 %noloadloss=0.1564
new object=transformer.xfmr_ae301009_c phases=1 buses=[0x008d78a0.3,0x008d78a0_s.3] kvs=[7.2,0.24] kvas=[75,75] xhl=1.7 %loadloss=0.7777646 %noloadloss=0.1609687
new object=transformer.xfmr_ae301010_c phases=1 buses=[0x008d7c10.3,0x008d7c10_s.3] kvs=[7.2,0.24] kvas=[75,75] xhl=1.61 %loadloss=0.7332 %noloadloss=0.1786667
new object=transformer.xfmr_ae301011_c phases=1 buses=[0x008eb7e0.3,0x008eb7e0_s.3] kvs=[7.2,0.24] kvas=[50,50] xhl=1.61 %loadloss=0.7192 %noloadloss=0.1914
new object=transformer.xfmr_ae301016_a phases=1 buses=[0x008d8138.1,0x008d8138_s.1] kvs=[7.2,0.24] kvas=[50,50] xhl=1.9 %loadloss=0.9604 %noloadloss=0.1836
new object=transformer.xfmr_ae301017_a phases=1 buses=[0x008d89d0.1,0x008d89d0_s.1] kvs=[7.2,0.24] kvas=[75,75] xhl=1.85 %loadloss=0.8229333 %noloadloss=0.1484
new object=transformer.xfmr_ae301018_a phases=1 buses=[0x008dec78.1,0x008dec78_s.1] kvs=[7.2,0.24] kvas=[75,75] xhl=1.9 %loadloss=0.8117333 %noloadloss=0.1488
new object=transformer.xfmr_ae301019_a phases=1 buses=[0x008996e0.1,0x008996e0_s.1] kvs=[7.2,0.24] kvas=[50,50] xhl=1.66 %loadloss=0.928 %noloadloss=0.172
new object=transformer.xfmr_ae301020_a phases=1 buses=[0x008d9830.1,0x008d9830_s.1] kvs=[7.2,0.24] kvas=[50,50] xhl=1.67 %loadloss=0.8906804 %noloadloss=0.1857911
new object=transformer.xfmr_ae301021_a phases=1 buses=[0x008d9ba0.1,0x008d9ba0_s.1] kvs=[7.2,0.24] kvas=[50,50] xhl=1.66 %loadloss=0.91 %noloadloss=0.172
new object=transformer.xfmr_ae301022_c phases=1 buses=[0x008d08c0.3,0x008d08c0_s.3] kvs=[7.2,0.24] kvas=[50,50] xhl=1.53 %loadloss=0.72 %noloadloss=0.1808
new object=transformer.xfmr_ae301517_c phases=1 buses=[0x008da438.3,0x008da438_s.3] kvs=[7.2,0.24] kvas=[50,50] xhl=1.77 %loadloss=1.14838 %noloadloss=0.1899
new object=transformer.xfmr_ae301518_c phases=1 buses=[0x008da960.3,0x008da960_s.3] kvs=[7.2,0.24] kvas=[50,50] xhl=1.64 %loadloss=0.6738 %noloadloss=0.181
new object=transformer.xfmr_ae301519_c phases=1 buses=[0x008dacd0.3,0x008dacd0_s.3] kvs=[7.2,0.24] kvas=[75,75] xhl=1.49 %loadloss=0.6506667 %noloadloss=0.1933333
new object=transformer.xfmr_ae301520_a phases=1 buses=[0x008db568.1,0x008db568_s.1] kvs=[7.2,0.24] kvas=[50,50] xhl=1.63 %loadloss=0.674 %noloadloss=0.2016
new object=transformer.xfmr_ae301521_a phases=1 buses=[0x008db040.1,0x008db040_s.1] kvs=[7.2,0.24] kvas=[50,50] xhl=1.86 %loadloss=0.936 %noloadloss=0.188
new object=transformer.xfmr_ae300247 phases=3 buses=[0x008e6fb0,0x008e6fb0_s] kvs=[12.47,0.208] kvas=[225,225] xhl=4.8 %loadloss=0.7576667 %noloadloss=0.1905667
new object=transformer.xfmr_ae300250 phases=3 buses=[0x008e7a00,0x008e7a00_s] kvs=[12.47,0.208] kvas=[150,150] xhl=2.09 %loadloss=0.8787333 %noloadloss=0.2020667
new object=transformer.xfmr_ae300322 phases=3 buses=[0x0089e678,0x0089e678_s] kvs=[12.47,0.208] kvas=[300,300] xhl=4.46 %loadloss=0.6366 %noloadloss=0.1790667
new object=transformer.xfmr_ae301090 phases=3 buses=[0x008d3070,0x008d3070_s] kvs=[12.47,0.48] kvas=[750,750] xhl=6.01 %loadloss=0.6524 %noloadloss=0.1081333


!!!regcontrol.dss
new object=regcontrol.m1_xfmr_regulator transformer=m1_xfmr winding=2 tapwinding=2 vreg=122.0 band=3.0 ptratio=60 bus=temp enabled=true delay=15 tapdelay=45


!!!wiredata.dss
new object=wiredata.750a diam=0.997 gmrac=0.0319 gmrunits=ft rac=0.0888 radunits=in runits=mi normamps=602
new object=wiredata.500a diam=0.813 gmrac=0.026 gmrunits=ft rac=0.206 radunits=in runits=mi normamps=483
new object=wiredata.1/0a diam=0.368 gmrac=0.0111 gmrunits=ft rac=0.97 radunits=in runits=mi normamps=202
new object=wiredata.340a diam=0.666 gmrac=0.021 gmrunits=ft rac=0.305 radunits=in runits=mi normamps=410


!!!linegeometry.dss
new object=linegeometry.750a_qx3 nconds=4 nphases=3 cond=1 wire=750a x=0 h=35 units=ft cond=2 wire=750a x=0.08 h=34.92 units=ft cond=3 wire=750a x=0 h=34.83 units=ft cond=4 wire=750a x=-0.08 h=34.92 units=ft reduce=yes

new object=linegeometry.500a_qx3 nconds=4 nphases=3 cond=1 wire=500a x=0 h=35 units=ft cond=2 wire=500a x=0.068 h=34.932 units=ft cond=3 wire=500a x=0 h=34.864 units=ft cond=4 wire=500a x=-0.068 h=34.932 units=ft reduce=yes

new object=linegeometry.1/0a_qx3 nconds=4 nphases=3 cond=1 wire=1/0a x=0 h=35 units=ft cond=2 wire=1/0a x=0.0307 h=34.969 units=ft cond=3 wire=1/0a x=0 h=34.939 units=ft cond=4 wire=1/0a x=-0.0307 h=34.969 units=ft reduce=yes

new object=linegeometry.340a_qx3 nconds=4 nphases=3 cond=1 wire=340a x=0 h=35 units=ft cond=2 wire=340a x=0.0555 h=34.94 units=ft cond=3 wire=340a x=0 h=34.889 units=ft cond=4 wire=340a x=-0.0555 h=34.94 units=ft reduce=yes



!!!linecode.dss
new object=linecode.6 nphases=3 rmatrix=[0.75725409,0.01804955,0.01804955|0.01804955,0.75725409,0.01804955|0.01804955,0.01804955,0.75725409] xmatrix=[0.30170015,0.27038088,0.26241611|0.27038088,0.30170015,0.27038088|0.26241611,0.27038088,0.30170015] cmatrix=[15.00000000,-12.00000000,-12.00000000 |-12.00000000,15.00000000,-12.00000000 |-12.00000000,-12.00000000,15.00000000] normamps=65 emergamps=81.25
new object=linecode.4 nphases=3 rmatrix=[0.48263288,0.01804955,0.01804955|0.01804955,0.48263288,0.01804955|0.01804955,0.01804955,0.48263288] xmatrix=[0.29636587,0.26505374,0.25708896|0.26505374,0.29636587,0.26505374|0.25708896,0.26505374,0.29636587] cmatrix=[15.00000000,-12.00000000,-12.00000000 |-12.00000000,15.00000000,-12.00000000 |-12.00000000,-12.00000000,15.00000000] normamps=90 emergamps=112.5
new object=linecode.2 nphases=3 rmatrix=[0.30990561,0.01804955,0.01804955|0.01804955,0.30990561,0.01804955|0.01804955,0.01804955,0.30990561] xmatrix=[0.29102854,0.25976762,0.25180285|0.25976762,0.29102854,0.25976762|0.25180285,0.25976762,0.29102854] cmatrix=[15.00000000,-12.00000000,-12.00000000 |-12.00000000,15.00000000,-12.00000000 |-12.00000000,-12.00000000,15.00000000] normamps=156 emergamps=195
new object=linecode.1 nphases=3 rmatrix=[0.24986773,0.01804955,0.01804955|0.01804955,0.24986773,0.01804955|0.01804955,0.01804955,0.24986773] xmatrix=[0.28837672,0.25709580,0.24913103|0.25709580,0.28837672,0.25709580|0.24913103,0.25709580,0.28837672] cmatrix=[15.00000000,-12.00000000,-12.00000000 |-12.00000000,15.00000000,-12.00000000 |-12.00000000,-12.00000000,15.00000000] normamps=177 emergamps=221.25
new object=linecode.1/0a normamps=202 emergamps=252.5 neutral=0 kron=n nphases=1 rmatrix=[0.25386817] xmatrix=[0.07582623] cmatrix=[15.00000000]
new object=linecode.1/0a_split normamps=202 emergamps=252.5 neutral=0 kron=n nphases=2 rmatrix=[0.28652320,0.10281108|0.10281108,0.28652320] xmatrix=[0.12019001,0.08090597|0.08090597,0.12019001] cmatrix=[15.00000000,-12.00000000 |-12.00000000,15.00000000]
new object=linecode.1/0a3 nphases=3 rmatrix=[0.20176167,0.01804955,0.01804955|0.01804955,0.20176167,0.01804955|0.01804955,0.01804955,0.20176167] xmatrix=[0.28577060,0.25445134,0.24648656|0.25445134,0.28577060,0.25445134|0.24648656,0.25445134,0.28577060] cmatrix=[15.00000000,-12.00000000,-12.00000000 |-12.00000000,15.00000000,-12.00000000 |-12.00000000,-12.00000000,15.00000000] normamps=202 emergamps=252.5
new object=linecode.2/0 nphases=3 rmatrix=[0.16369348,0.01804955,0.01804955|0.01804955,0.16369348,0.01804955|0.01804955,0.01804955,0.16369348] xmatrix=[0.28304078,0.25174451,0.24377973|0.25174451,0.28304078,0.25174451|0.24377973,0.25174451,0.28304078] cmatrix=[15.00000000,-12.00000000,-12.00000000 |-12.00000000,15.00000000,-12.00000000 |-12.00000000,-12.00000000,15.00000000] normamps=230 emergamps=287.5
new object=linecode.3/0 nphases=3 rmatrix=[0.13376924,0.01804955,0.01804955|0.01804955,0.13376924,0.01804955|0.01804955,0.01804955,0.13376924] xmatrix=[0.28043632,0.24912419,0.24115942|0.24912419,0.28043632,0.24912419|0.24115942,0.24912419,0.28043632] cmatrix=[15.00000000,-12.00000000,-12.00000000 |-12.00000000,15.00000000,-12.00000000 |-12.00000000,-12.00000000,15.00000000] normamps=263 emergamps=328.75
new object=linecode.4/0a normamps=299 emergamps=373.75 neutral=0 kron=n nphases=1 rmatrix=[0.12983011] xmatrix=[0.05932303] cmatrix=[15.00000000]
new object=linecode.4/0a_split normamps=299 emergamps=373.75 neutral=0 kron=n nphases=2 rmatrix=[0.15635003,0.06468336|0.06468336,0.15635003] xmatrix=[0.07856455,0.03936049|0.03936049,0.07856455] cmatrix=[15.00000000,-12.00000000 |-12.00000000,15.00000000]
new object=linecode.350a normamps=399 emergamps=498.75 neutral=0 kron=n nphases=1 rmatrix=[0.07964387] xmatrix=[0.05401546] cmatrix=[15.00000000]
new object=linecode.500a normamps=483 emergamps=603.75 neutral=0 kron=n nphases=1 rmatrix=[0.05614029] xmatrix=[0.05218394] cmatrix=[15.00000000]
new object=linecode.750a normamps=580 emergamps=725 neutral=0 kron=n nphases=1 rmatrix=[0.03934840] xmatrix=[0.02733673] cmatrix=[15.00000000]
new object=linecode.350a3 nphases=3 rmatrix=[0.07373136,0.01804955,0.01804955|0.01804955,0.07373136,0.01804955|0.01804955,0.01804955,0.07373136] xmatrix=[0.27068451,0.24037430,0.23240953|0.24037430,0.27068451,0.24037430|0.23240953,0.24037430,0.27068451] cmatrix=[15.00000000,-12.00000000,-12.00000000 |-12.00000000,15.00000000,-12.00000000 |-12.00000000,-12.00000000,15.00000000] normamps=399 emergamps=498.75
new object=linecode.500a3 nphases=3 rmatrix=[0.05706470,0.01804955,0.01804955|0.01804955,0.05706470,0.01804955|0.01804955,0.01804955,0.05706470] xmatrix=[0.26620988,0.23623511,0.22827034|0.23623511,0.26620988,0.23623511|0.22827034,0.23623511,0.26620988] cmatrix=[15.00000000,-12.00000000,-12.00000000 |-12.00000000,15.00000000,-12.00000000 |-12.00000000,-12.00000000,15.00000000] normamps=483 emergamps=603.75
new object=linecode.750a3 nphases=3 rmatrix=[0.04437530,0.01804955,0.01804955|0.01804955,0.04437530,0.01804955|0.01804955,0.01804955,0.04437530] xmatrix=[0.26150996,0.24834508,0.24038031|0.24834508,0.26150996,0.24834508|0.24038031,0.24834508,0.26150996] cmatrix=[15.00000000,-12.00000000,-12.00000000 |-12.00000000,15.00000000,-12.00000000 |-12.00000000,-12.00000000,15.00000000] normamps=580 emergamps=725
new object=linecode.ug-1-b750cu_pilc15kv nphases=3 r1=0.05 x1=0.15 r0=0.05 x0=0.15 c1=265.26 c0=0 units=km basefreq=60 normamps=535 emergamps=535


!!!spectrum.dss
new object=spectrum.default numharm=7 harmonic=(1,3,5,7,9,11,13) %mag=(100,33,20,14.000000000000002,11,9,7.0000000000000009) angle=(0,0,0,0,0,0,0)
new object=spectrum.defaultload numharm=7 harmonic=(1,3,5,7,9,11,13) %mag=(100,1.5,20,14.000000000000002,1,9,7.0000000000000009) angle=(0,180,180,180,180,180,180)
new object=spectrum.defaultgen numharm=7 harmonic=(1,3,5,7,9,11,13) %mag=(100,5,3,1.5,1,0.69999999999999996,0.5) angle=(0,0,0,0,0,0,0)
new object=spectrum.defaultvsource numharm=1 harmonic=(1) %mag=(100) angle=(0)
new object=spectrum.linear numharm=1 harmonic=(1) %mag=(100) angle=(0)
new object=spectrum.pwm6 numharm=13 harmonic=(1,3,5,7,9,11,13,15,17,19,21,23,25) %mag=(100,4.4000000000000004,76.5,62.700000000000003,2.8999999999999999,24.800000000000001,12.699999999999999,0.5,7.0999999999999996,8.4000000000000004,0.90000000000000013,4.4000000000000004,3.3000000000000003) angle=(-103,-5,28,-180,-33,-59,79,36,-253,-124,3,-30,86)
new object=spectrum.dc6 numharm=10 harmonic=(1,3,5,7,9,11,13,15,17,19) %mag=(100,1.2,33.600000000000001,1.6000000000000001,0.40000000000000002,8.6999999999999993,1.2,0.29999999999999999,4.5,1.3) angle=(-75,28,156,29,-91,49,54,148,-57,-46)


!!!tcc_curve.dss
new object=tcc_curve.a npts=5 c_array=[1,2.5,4.5,8,14] t_array=[0.15,0.07,0.05,0.045,0.045]
new object=tcc_curve.d npts=5 c_array=[1,2.5,4.5,8,14] t_array=[6,0.7,0.2,0.06,0.02]
new object=tcc_curve.tlink npts=7 c_array=[2,2.1,3,4,6,22,50] t_array=[300,100,10.1,4,1.4,0.1,0.02]
new object=tcc_curve.klink npts=6 c_array=[2,2.2,3,4,6,30] t_array=[300,20,4,1.3,0.41,0.02]
new object=tcc_curve.uv1547 npts=2 c_array=[0.5,0.9] t_array=[0.166,2]
new object=tcc_curve.ov1547 npts=2 c_array=[1.1,1.2] t_array=[2,0.166]
new object=tcc_curve.mod_inv npts=15 c_array=[1.1,1.3,1.5,2,3,4,5,6,7,8,9,10,20,50,100] t_array=[27.1053,9.9029,6.439,3.8032,2.4322,1.9458,1.6883,1.5255,1.4117,1.3267,1.2604,1.2068,0.9481,0.7468,0.6478]
new object=tcc_curve.very_inv npts=15 c_array=[1.1,1.3,1.5,2,3,4,5,6,7,8,9,10,20,50,100] t_array=[93.872,28.9113,16.179,7.0277,2.9423,1.7983,1.3081,1.0513,0.8995,0.8023,0.7361,0.6891,0.5401,0.4988,0.493]
new object=tcc_curve.ext_inv npts=15 c_array=[1.1,1.3,1.5,2,3,4,5,6,7,8,9,10,20,50,100] t_array=[134.407,40.9913,22.6817,9.5217,3.6467,2.0017,1.2967,0.9274,0.7092,0.5693,0.4742,0.4065,0.1924,0.133,0.1245]
new object=tcc_curve.definite npts=3 c_array=[1,1.001,100] t_array=[300,1,1]


!!!capacitor.dss
new object=capacitor.cap1 phases=3 bus1=0x008c6578 kv=12.470000000000001 kvar=[1200] conn=wye enabled=true states=[0]
new object=capacitor.cap2 phases=3 bus1=0x008ed880 kv=12.470000000000001 kvar=[1200] conn=wye enabled=true states=[1]
new object=capacitor.cap3 phases=3 bus1=0x008dbe00 kv=12.470000000000001 kvar=[1200] conn=wye enabled=true states=[1]


!!!growthshape.dss
new object=growthshape.default npts=2 year=(1,20) mult=(1.0249999999999999,1.0249999999999999)


!!!line.dss
new object=line.temp bus1=temp bus2=temp2 switch=true enabled=true phases=3 normamps=99999 emergamps=99999
new object=line.temp1 bus1=temp2 bus2=aggld switch=true enabled=true phases=3 normamps=99999 emergamps=99999
new object=line.temp2 bus1=temp2 bus2=0x0089f0c8 switch=true enabled=true phases=3 normamps=99999 emergamps=99999
new object=line.0x008f0780_0x008d8138 bus1=0x008f0780.1 bus2=0x008d8138.1 length=0.0813589 phases=1 r1=1.12861 x1=0.33793 r0=1.12861 x0=0.33793 c0=0.0002122066 c1=0.0002122066
new object=line.0x008ddcf8_0x008ddb40 bus1=0x008ddcf8.1 bus2=0x008ddb40.1 length=0.0384401 phases=1 r1=1.12861 x1=0.33793 r0=1.12861 x0=0.33793 c0=0.0002122066 c1=0.0002122066
new object=line.0x008cd1c0_0x008dcbc8 bus1=0x008cd1c0.1 bus2=0x008dcbc8.1 length=0.020706 phases=1 r1=1.12861 x1=0.33793 r0=1.12861 x0=0.33793 c0=0.0002122066 c1=0.0002122066
new object=line.0x008e1248_0x008deac0 bus1=0x008e1248.1 bus2=0x008deac0.1 length=0.0410587 phases=1 r1=1.12861 x1=0.33793 r0=1.12861 x0=0.33793 c0=0.0002122066 c1=0.0002122066
new object=line.0x008f3280_0x008f37a8 bus1=0x008f3280.1 bus2=0x008f37a8.1 length=0.0342286 phases=1 r1=1.12861 x1=0.33793 r0=1.12861 x0=0.33793 c0=0.0002122066 c1=0.0002122066
new object=line.0x008db8d8_0x008d9678 bus1=0x008db8d8.1 bus2=0x008d9678.1 length=0.199725 phases=1 r1=1.12861 x1=0.33793 r0=1.12861 x0=0.33793 c0=0.0002122066 c1=0.0002122066
new object=line.0x008f37a8_0x008e5278 bus1=0x008f37a8.1 bus2=0x008e5278.1 length=0.170388 phases=1 r1=1.12861 x1=0.33793 r0=1.12861 x0=0.33793 c0=0.0002122066 c1=0.0002122066
new object=line.0x008cd6e8_0x008f0ca8 bus1=0x008cd6e8.1 bus2=0x008f0ca8.1 length=0.0447192 phases=1 r1=1.12861 x1=0.33793 r0=1.12861 x0=0.33793 c0=0.0002122066 c1=0.0002122066
new object=line.0x008e5278_0x008e74d8 bus1=0x008e5278.1 bus2=0x008e74d8.1 length=0.132224 phases=1 r1=1.12861 x1=0.33793 r0=1.12861 x0=0.33793 c0=0.0002122066 c1=0.0002122066
new object=line.0x008e74d8_0x008f2308 bus1=0x008e74d8.1 bus2=0x008f2308.1 length=0.0200417 phases=1 r1=1.12861 x1=0.33793 r0=1.12861 x0=0.33793 c0=0.0002122066 c1=0.0002122066
new object=line.0x008dcbc8_0x008dd0f0 bus1=0x008dcbc8.1 bus2=0x008dd0f0.1 length=0.0269372 phases=1 r1=1.12861 x1=0.33793 r0=1.12861 x0=0.33793 c0=0.0002122066 c1=0.0002122066
new object=line.0x008e0640_0x008e9e18 bus1=0x008e0640.1 bus2=0x008e9e18.1 length=0.0795265 phases=1 r1=1.12861 x1=0.33793 r0=1.12861 x0=0.33793 c0=0.0002122066 c1=0.0002122066
new object=line.0x008e9e18_0x008dbc48 bus1=0x008e9e18.1 bus2=0x008dbc48.1 length=0.0262016 phases=1 r1=1.12861 x1=0.33793 r0=1.12861 x0=0.33793 c0=0.0002122066 c1=0.0002122066
new object=line.0x008ce818_0x008dd7d0 bus1=0x008ce818.1 bus2=0x008dd7d0.1 length=0.13613 phases=1 r1=1.12861 x1=0.33793 r0=1.12861 x0=0.33793 c0=0.0002122066 c1=0.0002122066
new object=line.0x008dd7d0_0x008d2618 bus1=0x008dd7d0.1 bus2=0x008d2618.1 length=0.133986 phases=1 r1=1.12861 x1=0.33793 r0=1.12861 x0=0.33793 c0=0.0002122066 c1=0.0002122066
new object=line.0x008d2618_0x008cc5b8 bus1=0x008d2618.1 bus2=0x008cc5b8.1 length=0.106304 phases=1 r1=1.12861 x1=0.33793 r0=1.12861 x0=0.33793 c0=0.0002122066 c1=0.0002122066
new object=line.0x008d9678_0x008ce818 bus1=0x008d9678.1 bus2=0x008ce818.1 length=0.124964 phases=1 r1=1.12861 x1=0.33793 r0=1.12861 x0=0.33793 c0=0.0002122066 c1=0.0002122066
new object=line.0x008cf5d8_0x008dc4e8 bus1=0x008cf5d8.1 bus2=0x008dc4e8.1 length=0.0828553 phases=1 r1=1.12861 x1=0.33793 r0=1.12861 x0=0.33793 c0=0.0002122066 c1=0.0002122066
new object=line.0x008d5ed8_0x0089ccb0 bus1=0x008d5ed8.1 bus2=0x0089ccb0.1 length=0.017098 phases=1 r1=1.12861 x1=0.33793 r0=1.12861 x0=0.33793 c0=0.0002122066 c1=0.0002122066
new object=line.0x008dc4e8_0x008d2460 bus1=0x008dc4e8.1 bus2=0x008d2460.1 length=0.0401161 phases=1 r1=1.12861 x1=0.33793 r0=1.12861 x0=0.33793 c0=0.0002122066 c1=0.0002122066
new object=line.0x008d2460_0x008d5ed8 bus1=0x008d2460.1 bus2=0x008d5ed8.1 length=0.041271 phases=1 r1=1.12861 x1=0.33793 r0=1.12861 x0=0.33793 c0=0.0002122066 c1=0.0002122066
new object=line.0x008e44b8_0x008db8d8 bus1=0x008e44b8.1 bus2=0x008db8d8.1 length=0.157019 phases=1 r1=1.12861 x1=0.33793 r0=1.12861 x0=0.33793 c0=0.0002122066 c1=0.0002122066
new object=line.0x008ce2f0_0x008cd6e8 bus1=0x008ce2f0.1 bus2=0x008cd6e8.1 length=0.0616753 phases=1 r1=1.12861 x1=0.33793 r0=1.12861 x0=0.33793 c0=0.0002122066 c1=0.0002122066
new object=line.0x008d89d0_0x008d1858 bus1=0x008d89d0.1 bus2=0x008d1858.1 length=0.0614284 phases=1 r1=1.12861 x1=0.33793 r0=1.12861 x0=0.33793 c0=0.0002122066 c1=0.0002122066
new object=line.0x008d22a8_0x008e44b8 bus1=0x008d22a8.1 bus2=0x008e44b8.1 length=0.348184 phases=1 r1=1.12861 x1=0.33793 r0=1.12861 x0=0.33793 c0=0.0002122066 c1=0.0002122066
new object=line.0x008dd0f0_0x008c3a80 bus1=0x008dd0f0.1 bus2=0x008c3a80.1 length=0.0118864 phases=1 r1=1.12861 x1=0.33793 r0=1.12861 x0=0.33793 c0=0.0002122066 c1=0.0002122066
new object=line.0x008d0708_0x008d5640 bus1=0x008d0708.1 bus2=0x008d5640.1 length=0.149676 phases=1 r1=1.12861 x1=0.33793 r0=1.12861 x0=0.33793 c0=0.0002122066 c1=0.0002122066
new object=line.0x008cf420_0x008e1248 bus1=0x008cf420.1 bus2=0x008e1248.1 length=0.169986 phases=1 r1=1.12861 x1=0.33793 r0=1.12861 x0=0.33793 c0=0.0002122066 c1=0.0002122066
new object=line.0x008dbfb8_0x008db720 bus1=0x008dbfb8.1 bus2=0x008db720.1 length=0.152465 phases=1 r1=1.12861 x1=0.33793 r0=1.12861 x0=0.33793 c0=0.0002122066 c1=0.0002122066
new object=line.0x008996e0_0x008d9830 bus1=0x008996e0.1 bus2=0x008d9830.1 length=0.0253621 phases=1 r1=1.12861 x1=0.33793 r0=1.12861 x0=0.33793 c0=0.0002122066 c1=0.0002122066
new object=line.0x008deac0_0x008ddcf8 bus1=0x008deac0.1 bus2=0x008ddcf8.1 length=0.0180763 phases=1 r1=1.12861 x1=0.33793 r0=1.12861 x0=0.33793 c0=0.0002122066 c1=0.0002122066
new object=line.0x008d9830_0x008d9ba0 bus1=0x008d9830.1 bus2=0x008d9ba0.1 length=0.0188147 phases=1 r1=1.12861 x1=0.33793 r0=1.12861 x0=0.33793 c0=0.0002122066 c1=0.0002122066
new object=line.0x008db040_0x008c2120 bus1=0x008db040.1 bus2=0x008c2120.1 length=0.0475343 phases=1 r1=1.12861 x1=0.33793 r0=1.12861 x0=0.33793 c0=0.0002122066 c1=0.0002122066
new object=line.0x008dec78_0x008e8298 bus1=0x008dec78.1 bus2=0x008e8298.1 length=0.00855 phases=1 r1=1.12861 x1=0.33793 r0=1.12861 x0=0.33793 c0=0.0002122066 c1=0.0002122066
new object=line.0x008db568_0x008db040 bus1=0x008db568.1 bus2=0x008db040.1 length=0.047294 phases=1 r1=1.12861 x1=0.33793 r0=1.12861 x0=0.33793 c0=0.0002122066 c1=0.0002122066
new object=line.0x008d9ba0_0x008db568 bus1=0x008d9ba0.1 bus2=0x008db568.1 length=0.0577868 phases=1 r1=1.12861 x1=0.33793 r0=1.12861 x0=0.33793 c0=0.0002122066 c1=0.0002122066
new object=line.0x008f11d8_0x008e1928 bus1=0x008f11d8.1 bus2=0x008e1928.1 length=0.0373674 phases=1 r1=1.12861 x1=0.33793 r0=1.12861 x0=0.33793 c0=0.0002122066 c1=0.0002122066
new object=line.0x008e3358_0x008c8b48 bus1=0x008e3358.1 bus2=0x008c8b48.1 length=0.25676 phases=1 r1=1.12861 x1=0.33793 r0=1.12861 x0=0.33793 c0=0.0002122066 c1=0.0002122066
new object=line.0x008e6560_0x008e6a88 bus1=0x008e6560.1 bus2=0x008e6a88.1 length=0.025696 phases=1 r1=1.12861 x1=0.33793 r0=1.12861 x0=0.33793 c0=0.0002122066 c1=0.0002122066
new object=line.0x008e6a88_0x008e7168 bus1=0x008e6a88.1 bus2=0x008e7168.1 length=0.030386 phases=1 r1=1.12861 x1=0.33793 r0=1.12861 x0=0.33793 c0=0.0002122066 c1=0.0002122066
new object=line.0x008ddb40_0x008e8ce8 bus1=0x008ddb40.1 bus2=0x008e8ce8.1 length=0.008381 phases=1 r1=1.12861 x1=0.33793 r0=1.12861 x0=0.33793 c0=0.0002122066 c1=0.0002122066
new object=line.0x008e8ce8_0x008e6560 bus1=0x008e8ce8.1 bus2=0x008e6560.1 length=0.027675 phases=1 r1=1.12861 x1=0.33793 r0=1.12861 x0=0.33793 c0=0.0002122066 c1=0.0002122066
new object=line.0x008e7168_0x008ea4f8 bus1=0x008e7168.1 bus2=0x008ea4f8.1 length=0.0249818 phases=1 r1=1.12861 x1=0.33793 r0=1.12861 x0=0.33793 c0=0.0002122066 c1=0.0002122066
new object=line.0x008de228_0x008c4bb0 bus1=0x008de228.1 bus2=0x008c4bb0.1 length=0.0236431 phases=1 r1=1.12861 x1=0.33793 r0=1.12861 x0=0.33793 c0=0.0002122066 c1=0.0002122066
new object=line.0x008c4bb0_0x008c5290 bus1=0x008c4bb0.1 bus2=0x008c5290.1 length=0.0248094 phases=1 r1=1.12861 x1=0.33793 r0=1.12861 x0=0.33793 c0=0.0002122066 c1=0.0002122066
new object=line.0x008c5290_0x008f18b8 bus1=0x008c5290.1 bus2=0x008f18b8.1 length=0.018039 phases=1 r1=1.12861 x1=0.33793 r0=1.12861 x0=0.33793 c0=0.0002122066 c1=0.0002122066
new object=line.0x008efb78_0x008cf5d8 bus1=0x008efb78.1 bus2=0x008cf5d8.1 length=0.331713 phases=1 r1=1.12861 x1=0.33793 r0=1.12861 x0=0.33793 c0=0.0002122066 c1=0.0002122066
new object=line.0x008e7690_0x008ddeb0 bus1=0x008e7690.1 bus2=0x008ddeb0.1 length=0.0815733 phases=1 r1=1.12861 x1=0.33793 r0=1.12861 x0=0.33793 c0=0.0002122066 c1=0.0002122066
new object=line.0x008dbc48_0x008dbfb8 bus1=0x008dbc48.1 bus2=0x008dbfb8.1 length=0.0233355 phases=1 r1=1.12861 x1=0.33793 r0=1.12861 x0=0.33793 c0=0.0002122066 c1=0.0002122066
new object=line.0x008c9070_0x008de908 bus1=0x008c9070.1 bus2=0x008de908.1 length=0.0126587 phases=1 r1=1.12861 x1=0.33793 r0=1.12861 x0=0.33793 c0=0.0002122066 c1=0.0002122066
new object=line.0x008ca6c8_0x008c9070 bus1=0x008ca6c8.1 bus2=0x008c9070.1 length=0.0646374 phases=1 r1=1.12861 x1=0.33793 r0=1.12861 x0=0.33793 c0=0.0002122066 c1=0.0002122066
new object=line.0x008d8138_0x008d89d0 bus1=0x008d8138.1 bus2=0x008d89d0.1 length=0.114515 phases=1 r1=1.12861 x1=0.33793 r0=1.12861 x0=0.33793 c0=0.0002122066 c1=0.0002122066
new object=line.0x008c8b48_0x008ce2f0 bus1=0x008c8b48.1 bus2=0x008ce2f0.1 length=0.0502633 phases=1 r1=1.12861 x1=0.33793 r0=1.12861 x0=0.33793 c0=0.0002122066 c1=0.0002122066
new object=line.0x008e2598_0x008996e0 bus1=0x008e2598.1 bus2=0x008996e0.1 length=0.326854 phases=1 r1=1.12861 x1=0.33793 r0=1.12861 x0=0.33793 c0=0.0002122066 c1=0.0002122066
new object=line.0x008dff60_0x008e4d50 bus1=0x008dff60.1 bus2=0x008e4d50.1 length=0.0188319 phases=1 r1=1.12861 x1=0.33793 r0=1.12861 x0=0.33793 c0=0.0002122066 c1=0.0002122066
new object=line.0x008db720_0x008db1f8 bus1=0x008db720.1 bus2=0x008db1f8.1 length=0.0343891 phases=1 r1=1.12861 x1=0.33793 r0=1.12861 x0=0.33793 c0=0.0002122066 c1=0.0002122066
new object=line.0x008db1f8_0x008de228 bus1=0x008db1f8.1 bus2=0x008de228.1 length=0.0341393 phases=1 r1=1.12861 x1=0.33793 r0=1.12861 x0=0.33793 c0=0.0002122066 c1=0.0002122066
new object=line.0x008dc858_0x008d0708 bus1=0x008dc858.1 bus2=0x008d0708.1 length=0.032906 phases=1 r1=1.12861 x1=0.33793 r0=1.12861 x0=0.33793 c0=0.0002122066 c1=0.0002122066
new object=line.0x008cada8_0x008dc858 bus1=0x008cada8.1 bus2=0x008dc858.1 length=0.053847 phases=1 r1=1.12861 x1=0.33793 r0=1.12861 x0=0.33793 c0=0.0002122066 c1=0.0002122066
new object=line.0x008b87e8_0x008cada8 bus1=0x008b87e8.1 bus2=0x008cada8.1 length=0.0178194 phases=1 r1=1.12861 x1=0.33793 r0=1.12861 x0=0.33793 c0=0.0002122066 c1=0.0002122066
new object=line.0x008e1928_0x008c6fc8 bus1=0x008e1928.1 bus2=0x008c6fc8.1 length=0.0774519 phases=1 r1=1.12861 x1=0.33793 r0=1.12861 x0=0.33793 c0=0.0002122066 c1=0.0002122066
new object=line.0x008c6fc8_0x008e1ae0 bus1=0x008c6fc8.1 bus2=0x008e1ae0.1 length=0.0881753 phases=1 r1=1.12861 x1=0.33793 r0=1.12861 x0=0.33793 c0=0.0002122066 c1=0.0002122066
new object=line.0x008e4d50_0x008c6050 bus1=0x008e4d50.1 bus2=0x008c6050.1 length=0.0111848 phases=1 r1=1.12861 x1=0.33793 r0=1.12861 x0=0.33793 c0=0.0002122066 c1=0.0002122066
new object=line.0x008c68e8_0x008f3280 bus1=0x008c68e8.1 bus2=0x008f3280.1 length=0.0534139 phases=1 r1=1.12861 x1=0.33793 r0=1.12861 x0=0.33793 c0=0.0002122066 c1=0.0002122066
new object=line.0x008e09b0_0x008e93c8 bus1=0x008e09b0.1 bus2=0x008e93c8.1 length=0.0281872 phases=1 r1=1.12861 x1=0.33793 r0=1.12861 x0=0.33793 c0=0.0002122066 c1=0.0002122066
new object=line.0x008e93c8_0x008ea868 bus1=0x008e93c8.1 bus2=0x008ea868.1 length=0.0694028 phases=1 r1=1.12861 x1=0.33793 r0=1.12861 x0=0.33793 c0=0.0002122066 c1=0.0002122066
new object=line.0x008e4f08_0x008e8b30 bus1=0x008e4f08.1 bus2=0x008e8b30.1 length=0.068691 phases=1 r1=1.12861 x1=0.33793 r0=1.12861 x0=0.33793 c0=0.0002122066 c1=0.0002122066
new object=line.0x008ea868_0x008eabd8 bus1=0x008ea868.1 bus2=0x008eabd8.1 length=0.0290562 phases=1 r1=1.12861 x1=0.33793 r0=1.12861 x0=0.33793 c0=0.0002122066 c1=0.0002122066
new object=line.0x008eb100_0x008d0c30 bus1=0x008eb100.1 bus2=0x008d0c30.1 length=0.06912 phases=1 r1=1.12861 x1=0.33793 r0=1.12861 x0=0.33793 c0=0.0002122066 c1=0.0002122066
new object=line.0x008eabd8_0x008eb100 bus1=0x008eabd8.1 bus2=0x008eb100.1 length=0.0290532 phases=1 r1=1.12861 x1=0.33793 r0=1.12861 x0=0.33793 c0=0.0002122066 c1=0.0002122066
new object=line.0x008d9f10_0x008dec78 bus1=0x008d9f10.1 bus2=0x008dec78.1 length=0.008549 phases=1 r1=1.12861 x1=0.33793 r0=1.12861 x0=0.33793 c0=0.0002122066 c1=0.0002122066
new object=line.0x008e1ae0_0x008c8eb8 bus1=0x008e1ae0.1 bus2=0x008c8eb8.1 length=0.00909202 phases=1 r1=1.12861 x1=0.33793 r0=1.12861 x0=0.33793 c0=0.0002122066 c1=0.0002122066
new object=line.0x008d1858_0x008d9f10 bus1=0x008d1858.1 bus2=0x008d9f10.1 length=0.0385562 phases=1 r1=1.12861 x1=0.33793 r0=1.12861 x0=0.33793 c0=0.0002122066 c1=0.0002122066
new object=line.0x008c6050_0x008c68e8 bus1=0x008c6050.1 bus2=0x008c68e8.1 length=0.0639454 phases=1 r1=1.12861 x1=0.33793 r0=1.12861 x0=0.33793 c0=0.0002122066 c1=0.0002122066
new object=line.0x008c8eb8_0x008dff60 bus1=0x008c8eb8.1 bus2=0x008dff60.1 length=0.346773 phases=1 r1=1.12861 x1=0.33793 r0=1.12861 x0=0.33793 c0=0.0002122066 c1=0.0002122066
new object=line.0x008de908_0x008d6770 bus1=0x008de908.1 bus2=0x008d6770.1 length=0.076461 phases=1 r1=1.12861 x1=0.33793 r0=1.12861 x0=0.33793 c0=0.0002122066 c1=0.0002122066
new object=line.0x008e8b30_0x008ca6c8 bus1=0x008e8b30.1 bus2=0x008ca6c8.1 length=0.104116 phases=1 r1=1.12861 x1=0.33793 r0=1.12861 x0=0.33793 c0=0.0002122066 c1=0.0002122066
new object=line.0x008ea4f8_0x008c3030 bus1=0x008ea4f8.1 bus2=0x008c3030.1 length=0.00949212 phases=1 r1=1.12861 x1=0.33793 r0=1.12861 x0=0.33793 c0=0.0002122066 c1=0.0002122066
new object=line.0x008e1770_0x008f1548 bus1=0x008e1770.2 bus2=0x008f1548.2 length=0.0899758 phases=1 r1=1.12861 x1=0.33793 r0=1.12861 x0=0.33793 c0=0.0002122066 c1=0.0002122066
new object=line.0x008d76e8_0x008d1330 bus1=0x008d76e8.2 bus2=0x008d1330.2 length=0.0833053 phases=1 r1=1.12861 x1=0.33793 r0=1.12861 x0=0.33793 c0=0.0002122066 c1=0.0002122066
new object=line.0x008d2b40_0x008d3ac0 bus1=0x008d2b40.2 bus2=0x008d3ac0.2 length=0.094369 phases=1 r1=1.12861 x1=0.33793 r0=1.12861 x0=0.33793 c0=0.0002122066 c1=0.0002122066
new object=line.0x0089d700_0x0089e4c0 bus1=0x0089d700.2 bus2=0x0089e4c0.2 length=0.0453055 phases=1 r1=1.12861 x1=0.33793 r0=1.12861 x0=0.33793 c0=0.0002122066 c1=0.0002122066
new object=line.0x008e0d20_0x008dfbf0 bus1=0x008e0d20.2 bus2=0x008dfbf0.2 length=0.0681666 phases=1 r1=1.12861 x1=0.33793 r0=1.12861 x0=0.33793 c0=0.0002122066 c1=0.0002122066
new object=line.0x008dfbf0_0x008d0398 bus1=0x008dfbf0.2 bus2=0x008d0398.2 length=0.0181325 phases=1 r1=1.12861 x1=0.33793 r0=1.12861 x0=0.33793 c0=0.0002122066 c1=0.0002122066
new object=line.0x008d0398_0x008c7338 bus1=0x008d0398.2 bus2=0x008c7338.2 length=0.0712477 phases=1 r1=1.12861 x1=0.33793 r0=1.12861 x0=0.33793 c0=0.0002122066 c1=0.0002122066
new object=line.0x008c7338_0x008f3960 bus1=0x008c7338.2 bus2=0x008f3960.2 length=0.0188246 phases=1 r1=1.12861 x1=0.33793 r0=1.12861 x0=0.33793 c0=0.0002122066 c1=0.0002122066
new object=line.0x008f3960_0x008ceb88 bus1=0x008f3960.2 bus2=0x008ceb88.2 length=0.0424714 phases=1 r1=1.12861 x1=0.33793 r0=1.12861 x0=0.33793 c0=0.0002122066 c1=0.0002122066
new object=line.0x008d33e0_0x008d3598 bus1=0x008d33e0.2 bus2=0x008d3598.2 length=0.146091 phases=1 r1=1.12861 x1=0.33793 r0=1.12861 x0=0.33793 c0=0.0002122066 c1=0.0002122066
new object=line.0x008d3598_0x008dd988 bus1=0x008d3598.2 bus2=0x008dd988.2 length=0.0740843 phases=1 r1=1.12861 x1=0.33793 r0=1.12861 x0=0.33793 c0=0.0002122066 c1=0.0002122066
new object=line.0x008d9d58_0x008cc090 bus1=0x008d9d58.2 bus2=0x008cc090.2 length=0.187833 phases=1 r1=1.12861 x1=0.33793 r0=1.12861 x0=0.33793 c0=0.0002122066 c1=0.0002122066
new object=line.0x008cd530_0x008cdc10 bus1=0x008cd530.2 bus2=0x008cdc10.2 length=0.0305348 phases=1 r1=1.12861 x1=0.33793 r0=1.12861 x0=0.33793 c0=0.0002122066 c1=0.0002122066
new object=line.0x008e07f8_0x008d4510 bus1=0x008e07f8.2 bus2=0x008d4510.2 length=0.0603165 phases=1 r1=1.12861 x1=0.33793 r0=1.12861 x0=0.33793 c0=0.0002122066 c1=0.0002122066
new object=line.0x008d4510_0x008d33e0 bus1=0x008d4510.2 bus2=0x008d33e0.2 length=0.0641646 phases=1 r1=1.12861 x1=0.33793 r0=1.12861 x0=0.33793 c0=0.0002122066 c1=0.0002122066
new object=line.0x008e2c78_0x008b8d10 bus1=0x008e2c78.2 bus2=0x008b8d10.2 length=0.269816 phases=1 r1=1.12861 x1=0.33793 r0=1.12861 x0=0.33793 c0=0.0002122066 c1=0.0002122066
new object=line.0x008d5118_0x008c5ce0 bus1=0x008d5118.2 bus2=0x008c5ce0.2 length=0.0388935 phases=1 r1=1.12861 x1=0.33793 r0=1.12861 x0=0.33793 c0=0.0002122066 c1=0.0002122066
new object=line.0x008d1f38_0x008c4688 bus1=0x008d1f38.2 bus2=0x008c4688.2 length=0.128446 phases=1 r1=1.12861 x1=0.33793 r0=1.12861 x0=0.33793 c0=0.0002122066 c1=0.0002122066
new object=line.0x008d1330_0x008dd618 bus1=0x008d1330.2 bus2=0x008dd618.2 length=0.129202 phases=1 r1=1.12861 x1=0.33793 r0=1.12861 x0=0.33793 c0=0.0002122066 c1=0.0002122066
new object=line.0x008ce138_0x0089e150 bus1=0x008ce138.2 bus2=0x0089e150.2 length=0.0386609 phases=1 r1=1.12861 x1=0.33793 r0=1.12861 x0=0.33793 c0=0.0002122066 c1=0.0002122066
new object=line.0x008cc090_0x008cd530 bus1=0x008cc090.2 bus2=0x008cd530.2 length=0.090326 phases=1 r1=1.12861 x1=0.33793 r0=1.12861 x0=0.33793 c0=0.0002122066 c1=0.0002122066
new object=line.0x008cdc10_0x008c80f8 bus1=0x008cdc10.2 bus2=0x008c80f8.2 length=0.0183204 phases=1 r1=1.12861 x1=0.33793 r0=1.12861 x0=0.33793 c0=0.0002122066 c1=0.0002122066
new object=line.0x008f2830_0x008de3e0 bus1=0x008f2830.2 bus2=0x008de3e0.2 length=0.071385 phases=1 r1=1.12861 x1=0.33793 r0=1.12861 x0=0.33793 c0=0.0002122066 c1=0.0002122066
new object=line.0x008da7a8_0x008ce138 bus1=0x008da7a8.2 bus2=0x008ce138.2 length=0.0531621 phases=1 r1=1.12861 x1=0.33793 r0=1.12861 x0=0.33793 c0=0.0002122066 c1=0.0002122066
new object=line.0x008ef498_0x008d01e0 bus1=0x008ef498.2 bus2=0x008d01e0.2 length=0.535682 phases=1 r1=1.12861 x1=0.33793 r0=1.12861 x0=0.33793 c0=0.0002122066 c1=0.0002122066
new object=line.0x008d01e0_0x008da7a8 bus1=0x008d01e0.2 bus2=0x008da7a8.2 length=0.0365103 phases=1 r1=1.12861 x1=0.33793 r0=1.12861 x0=0.33793 c0=0.0002122066 c1=0.0002122066
new object=line.0x008dd988_0x008de598 bus1=0x008dd988.2 bus2=0x008de598.2 length=0.019285 phases=1 r1=1.12861 x1=0.33793 r0=1.12861 x0=0.33793 c0=0.0002122066 c1=0.0002122066
new object=line.0x008ea6b0_0x008c44d0 bus1=0x008ea6b0.2 bus2=0x008c44d0.2 length=0.027432 phases=1 r1=1.12861 x1=0.33793 r0=1.12861 x0=0.33793 c0=0.0002122066 c1=0.0002122066
new object=line.0x008d3ac0_0x008f3b18 bus1=0x008d3ac0.2 bus2=0x008f3b18.2 length=0.020193 phases=1 r1=1.12861 x1=0.33793 r0=1.12861 x0=0.33793 c0=0.0002122066 c1=0.0002122066
new object=line.0x008de598_0x008cd8a0 bus1=0x008de598.2 bus2=0x008cd8a0.2 length=0.149102 phases=1 r1=1.12861 x1=0.33793 r0=1.12861 x0=0.33793 c0=0.0002122066 c1=0.0002122066
new object=line.0x008cd8a0_0x008ea6b0 bus1=0x008cd8a0.2 bus2=0x008ea6b0.2 length=0.013626 phases=1 r1=1.12861 x1=0.33793 r0=1.12861 x0=0.33793 c0=0.0002122066 c1=0.0002122066
new object=line.0x008c5970_0x008ca358 bus1=0x008c5970.2 bus2=0x008ca358.2 length=0.120704 phases=1 r1=1.12861 x1=0.33793 r0=1.12861 x0=0.33793 c0=0.0002122066 c1=0.0002122066
new object=line.0x008b8d10_0x008eb470 bus1=0x008b8d10.2 bus2=0x008eb470.2 length=0.0246745 phases=1 r1=1.12861 x1=0.33793 r0=1.12861 x0=0.33793 c0=0.0002122066 c1=0.0002122066
new object=line.0x008eb470_0x008d5118 bus1=0x008eb470.2 bus2=0x008d5118.2 length=0.0400315 phases=1 r1=1.12861 x1=0.33793 r0=1.12861 x0=0.33793 c0=0.0002122066 c1=0.0002122066
new object=line.0x008c2648_0x008c3558 bus1=0x008c2648.2 bus2=0x008c3558.2 length=0.00874918 phases=1 r1=1.12861 x1=0.33793 r0=1.12861 x0=0.33793 c0=0.0002122066 c1=0.0002122066
new object=line.0x0089bf70_0x008c2648 bus1=0x0089bf70.2 bus2=0x008c2648.2 length=0.025727 phases=1 r1=1.12861 x1=0.33793 r0=1.12861 x0=0.33793 c0=0.0002122066 c1=0.0002122066
new object=line.0x008c2490_0x0089bf70 bus1=0x008c2490.2 bus2=0x0089bf70.2 length=0.0173101 phases=1 r1=1.12861 x1=0.33793 r0=1.12861 x0=0.33793 c0=0.0002122066 c1=0.0002122066
new object=line.0x008c2b70_0x008c2490 bus1=0x008c2b70.2 bus2=0x008c2490.2 length=0.0320271 phases=1 r1=1.12861 x1=0.33793 r0=1.12861 x0=0.33793 c0=0.0002122066 c1=0.0002122066
new object=line.0x0089d020_0x008c2b70 bus1=0x0089d020.2 bus2=0x008c2b70.2 length=0.0735574 phases=1 r1=1.12861 x1=0.33793 r0=1.12861 x0=0.33793 c0=0.0002122066 c1=0.0002122066
new object=line.0x008cbd20_0x0089d020 bus1=0x008cbd20.2 bus2=0x0089d020.2 length=0.0911348 phases=1 r1=1.12861 x1=0.33793 r0=1.12861 x0=0.33793 c0=0.0002122066 c1=0.0002122066
new object=line.0x008f1548_0x008e38b0 bus1=0x008f1548.2 bus2=0x008e38b0.2 length=0.0359485 phases=1 r1=1.12861 x1=0.33793 r0=1.12861 x0=0.33793 c0=0.0002122066 c1=0.0002122066
new object=line.0x008ce9d0_0x0089dde0 bus1=0x008ce9d0.2 bus2=0x0089dde0.2 length=0.0629704 phases=1 r1=1.12861 x1=0.33793 r0=1.12861 x0=0.33793 c0=0.0002122066 c1=0.0002122066
new object=line.0x008e38b0_0x008e7320 bus1=0x008e38b0.2 bus2=0x008e7320.2 length=0.0129078 phases=1 r1=1.12861 x1=0.33793 r0=1.12861 x0=0.33793 c0=0.0002122066 c1=0.0002122066
new object=line.0x008e7320_0x008e7848 bus1=0x008e7320.2 bus2=0x008e7848.2 length=0.0119263 phases=1 r1=1.12861 x1=0.33793 r0=1.12861 x0=0.33793 c0=0.0002122066 c1=0.0002122066
new object=line.0x008d7dc8_0x008eda38 bus1=0x008d7dc8.2 bus2=0x008eda38.2 length=0.0410877 phases=1 r1=1.12861 x1=0.33793 r0=1.12861 x0=0.33793 c0=0.0002122066 c1=0.0002122066
new object=line.0x008eda38_0x0089fcd0 bus1=0x008eda38.2 bus2=0x0089fcd0.2 length=0.00908786 phases=1 r1=1.12861 x1=0.33793 r0=1.12861 x0=0.33793 c0=0.0002122066 c1=0.0002122066
new object=line.0x008e7848_0x008e4300 bus1=0x008e7848.2 bus2=0x008e4300.2 length=0.0119329 phases=1 r1=1.12861 x1=0.33793 r0=1.12861 x0=0.33793 c0=0.0002122066 c1=0.0002122066
new object=line.0x008e4300_0x008e2750 bus1=0x008e4300.2 bus2=0x008e2750.2 length=0.0163082 phases=1 r1=1.12861 x1=0.33793 r0=1.12861 x0=0.33793 c0=0.0002122066 c1=0.0002122066
new object=line.0x008e2750_0x008e2ac0 bus1=0x008e2750.2 bus2=0x008e2ac0.2 length=0.0253631 phases=1 r1=1.12861 x1=0.33793 r0=1.12861 x0=0.33793 c0=0.0002122066 c1=0.0002122066
new object=line.0x008e2ac0_0x008d7dc8 bus1=0x008e2ac0.2 bus2=0x008d7dc8.2 length=0.0492334 phases=1 r1=1.12861 x1=0.33793 r0=1.12861 x0=0.33793 c0=0.0002122066 c1=0.0002122066
new object=line.0x008c63c0_0x008f2830 bus1=0x008c63c0.2 bus2=0x008f2830.2 length=0.107512 phases=1 r1=1.12861 x1=0.33793 r0=1.12861 x0=0.33793 c0=0.0002122066 c1=0.0002122066
new object=line.0x008dd618_0x008d1f38 bus1=0x008dd618.2 bus2=0x008d1f38.2 length=0.072481 phases=1 r1=1.12861 x1=0.33793 r0=1.12861 x0=0.33793 c0=0.0002122066 c1=0.0002122066
new object=line.0x008cce50_0x008d3e30 bus1=0x008cce50.2 bus2=0x008d3e30.2 length=0.036168 phases=1 r1=1.12861 x1=0.33793 r0=1.12861 x0=0.33793 c0=0.0002122066 c1=0.0002122066
new object=line.0x008d0a78_0x008d0de8 bus1=0x008d0a78.2 bus2=0x008d0de8.2 length=0.107904 phases=1 r1=1.12861 x1=0.33793 r0=1.12861 x0=0.33793 c0=0.0002122066 c1=0.0002122066
...